Version 4
SHEET 1 1248 680
WIRE 208 -176 208 -208
WIRE 992 -176 208 -176
WIRE 208 -144 208 -176
WIRE -176 -96 -176 -144
WIRE -80 -96 -80 -144
WIRE 992 -64 992 -176
WIRE 256 -48 256 -64
WIRE 608 -48 256 -48
WIRE 608 -32 608 -48
WIRE 720 -16 688 -16
WIRE 912 -16 800 -16
WIRE -176 16 -176 -16
WIRE -80 16 -80 -16
WIRE 1184 32 1040 32
WIRE 608 80 608 64
WIRE 720 80 608 80
WIRE 912 80 800 80
WIRE 1184 80 1184 32
WIRE 160 112 160 -64
WIRE 608 128 608 80
WIRE -128 176 -208 176
WIRE -32 176 -64 176
WIRE 80 176 32 176
WIRE 288 176 240 176
WIRE 448 176 448 80
WIRE 448 176 400 176
WIRE -208 224 -208 176
WIRE 512 224 240 224
WIRE 1184 224 1184 160
WIRE 32 304 32 176
WIRE -208 352 -208 304
WIRE 160 432 160 272
WIRE 608 432 608 320
WIRE 608 432 160 432
WIRE 992 432 992 128
WIRE 992 432 608 432
WIRE 32 448 32 384
WIRE 608 480 608 432
FLAG 32 448 0
FLAG -208 352 0
FLAG -176 16 0
FLAG -176 -144 Vcc
FLAG -80 16 Vee
FLAG 208 -208 Vcc
FLAG 608 480 Vee
FLAG 1184 224 0
FLAG 448 80 out
FLAG 1184 32 out
FLAG -208 176 in
FLAG -80 -144 0
SYMBOL diff_pair 160 208 R0
WINDOW 0 -15 -16 Left 2
SYMATTR InstName DP
SYMBOL fb 352 176 M0
SYMATTR InstName FB
SYMBOL cap 32 160 R90
WINDOW 0 0 32 VBottom 2
WINDOW 3 32 32 VTop 2
SYMATTR InstName C1
SYMATTR Value 47µ
SYMBOL cap -64 160 R90
WINDOW 0 0 32 VBottom 2
WINDOW 3 32 32 VTop 2
SYMATTR InstName C2
SYMATTR Value 47µ
SYMBOL res 16 288 R0
SYMATTR InstName R1
SYMATTR Value 10k
SYMBOL current_source 208 -112 R0
WINDOW 0 -2 40 Bottom 2
SYMATTR InstName CS
SYMBOL voltage -176 -112 R0
WINDOW 123 0 0 Left 0
WINDOW 39 0 0 Left 0
SYMATTR InstName V1
SYMATTR Value {VC}
SYMBOL voltage -80 -112 R0
WINDOW 123 0 0 Left 0
WINDOW 39 0 0 Left 0
SYMATTR InstName V2
SYMATTR Value {VC}
SYMBOL voltage -208 208 R0
WINDOW 123 0 0 Left 0
WINDOW 39 0 0 Left 0
SYMATTR InstName V3
SYMATTR Value SINE(0 0.5 2k)
SYMBOL voltage_amplifier 576 224 R0
WINDOW 0 19 12 Bottom 2
SYMATTR InstName VA
SYMBOL bias 640 16 R0
SYMATTR InstName Bias
SYMBOL power_stage 960 32 R0
SYMATTR InstName PS
SYMBOL res 816 64 R90
WINDOW 0 0 56 VBottom 2
WINDOW 3 32 56 VTop 2
SYMATTR InstName R2
SYMATTR Value 100
SYMBOL res 816 -32 R90
WINDOW 0 0 56 VBottom 2
WINDOW 3 32 56 VTop 2
SYMATTR InstName R3
SYMATTR Value 100
SYMBOL res 1168 64 R0
SYMATTR InstName R4
SYMATTR Value 8
TEXT -240 472 Left 2 !.tran 0 5m 0 1u
TEXT -184 88 Left 2 !.param Vc=20
