Version 4
SHEET 1 1512 680
WIRE 608 -176 608 -208
WIRE 608 -176 352 -176
WIRE 992 -176 608 -176
WIRE 352 -144 352 -176
WIRE -192 -128 -192 -176
WIRE -112 -128 -112 -176
WIRE 992 -48 992 -176
WIRE 304 -32 304 -64
WIRE 304 -32 160 -32
WIRE 400 -32 400 -64
WIRE 608 -32 400 -32
WIRE 1264 -32 1184 -32
WIRE 1408 -32 1344 -32
WIRE -192 -16 -192 -48
WIRE -112 -16 -112 -48
WIRE 608 -16 608 -32
WIRE 720 0 688 0
WIRE 912 0 800 0
WIRE 1120 48 1040 48
WIRE 1184 48 1184 -32
WIRE 1184 48 1120 48
WIRE 1280 48 1184 48
WIRE 1408 48 1408 -32
WIRE 1408 48 1360 48
WIRE 1456 48 1408 48
WIRE 608 96 608 80
WIRE 720 96 608 96
WIRE 912 96 800 96
WIRE 1184 96 1184 48
WIRE 160 112 160 -32
WIRE 608 128 608 96
WIRE 1456 128 1456 48
WIRE -144 176 -208 176
WIRE -64 176 -80 176
WIRE 32 176 0 176
WIRE 80 176 32 176
WIRE 288 176 240 176
WIRE 448 176 448 80
WIRE 448 176 400 176
WIRE 1184 208 1184 176
WIRE 512 224 240 224
WIRE -208 272 -208 176
WIRE 32 272 32 176
WIRE 1184 304 1184 272
WIRE 1456 304 1456 208
WIRE 160 384 160 272
WIRE 608 384 608 320
WIRE 608 384 160 384
WIRE 992 384 992 144
WIRE 992 384 608 384
WIRE -208 432 -208 352
WIRE 32 432 32 352
WIRE 608 432 608 384
FLAG 32 432 0
FLAG -208 432 0
FLAG -112 -16 0
FLAG -112 -176 Vcc
FLAG -192 -176 Vee
FLAG 608 -208 Vcc
FLAG 608 432 Vee
FLAG 1456 304 0
FLAG 448 80 fb
FLAG 1456 48 out
FLAG -208 176 in
FLAG -192 -16 0
FLAG 1184 304 0
FLAG 1120 48 fb
SYMBOL diff_pair 160 208 R0
WINDOW 0 -82 -106 Left 2
SYMATTR InstName DP
SYMBOL fb 352 176 M0
WINDOW 0 50 -24 Bottom 2
SYMATTR InstName FB
SYMBOL cap 0 160 R90
WINDOW 0 0 32 VBottom 2
WINDOW 3 32 32 VTop 2
SYMATTR InstName C1
SYMATTR Value 47µ
SYMBOL cap -80 160 R90
WINDOW 0 0 32 VBottom 2
WINDOW 3 32 32 VTop 2
SYMATTR InstName C2
SYMATTR Value 47µ
SYMBOL res 16 256 R0
SYMATTR InstName R1
SYMATTR Value 10k
SYMBOL current_source 352 -112 R0
WINDOW 0 -48 -32 Bottom 2
SYMATTR InstName CS
SYMBOL voltage -112 -144 R0
WINDOW 123 0 0 Left 0
WINDOW 39 0 0 Left 0
SYMATTR InstName V1
SYMATTR Value {VC}
SYMBOL voltage -192 -32 R180
WINDOW 123 0 0 Left 0
WINDOW 39 0 0 Left 0
SYMATTR InstName V2
SYMATTR Value {VC}
SYMBOL voltage -208 256 R0
WINDOW 123 24 124 Left 2
WINDOW 39 0 0 Left 0
SYMATTR Value2 AC 0.1
SYMATTR InstName V3
SYMATTR Value SINE(0 0.7 2k)
SYMBOL voltage_amplifier 576 224 R0
WINDOW 0 -48 -95 Bottom 2
SYMATTR InstName VA
SYMBOL bias 640 32 R0
WINDOW 0 2 -47 Bottom 2
SYMATTR InstName Bias
SYMBOL power_stage 960 48 R0
WINDOW 0 -35 -95 Bottom 2
SYMATTR InstName PS
SYMBOL res 816 80 R90
WINDOW 0 0 56 VBottom 2
WINDOW 3 32 56 VTop 2
SYMATTR InstName R2
SYMATTR Value 100
SYMBOL res 816 -16 R90
WINDOW 0 0 56 VBottom 2
WINDOW 3 32 56 VTop 2
SYMATTR InstName R3
SYMATTR Value 100
SYMBOL res 1440 112 R0
SYMATTR InstName R4
SYMATTR Value 8
SYMBOL res 1168 80 R0
SYMATTR InstName R5
SYMATTR Value 10
SYMBOL cap 1168 208 R0
SYMATTR InstName C3
SYMATTR Value 100n
SYMBOL res 1376 32 R90
WINDOW 0 0 56 VBottom 2
WINDOW 3 32 56 VTop 2
SYMATTR InstName R6
SYMATTR Value 10
SYMBOL ind 1248 -16 R270
WINDOW 0 32 56 VTop 2
WINDOW 3 5 56 VBottom 2
SYMATTR InstName L1
SYMATTR Value 1µ
TEXT -216 560 Left 2 !.tran 0 5m 0 1u
TEXT -216 40 Left 2 !.param Vc=42
TEXT -216 592 Left 2 !;ac dec 20 1 1meg
TEXT -216 528 Left 2 !.op
