Version 4
SHEET 1 880 1352
WIRE 384 -48 384 -144
WIRE 384 -48 192 -48
WIRE 192 80 192 -48
WIRE 384 176 384 -48
WIRE 192 224 192 160
WIRE 320 224 192 224
WIRE 192 272 192 224
WIRE 128 320 -32 320
WIRE 192 432 192 368
WIRE 384 432 384 272
WIRE 384 432 192 432
WIRE 384 464 384 432
WIRE 384 576 384 544
WIRE 496 576 384 576
WIRE 384 608 384 576
WIRE 384 736 384 688
WIRE 384 736 192 736
WIRE 192 768 192 736
WIRE 128 816 -32 816
WIRE 384 864 384 736
WIRE 192 912 192 864
WIRE 320 912 192 912
WIRE 192 1008 192 912
WIRE 192 1168 192 1088
WIRE 384 1168 384 960
WIRE 384 1168 192 1168
WIRE 384 1264 384 1168
FLAG 384 -144 Vc
IOPIN 384 -144 In
FLAG 384 1264 Ve
IOPIN 384 1264 In
FLAG -32 320 B+
IOPIN -32 320 In
FLAG -32 816 B-
IOPIN -32 816 In
FLAG 496 576 Out
IOPIN 496 576 Out
SYMBOL res 176 64 R0
SYMATTR InstName R1
SYMATTR Value 100
SYMBOL npn 128 272 R0
SYMATTR InstName Q1
SYMATTR Value BC547B
SYMBOL pnp 320 272 M180
SYMATTR InstName Q2
SYMATTR Value 2SAR542P
SYMBOL res 368 448 R0
SYMATTR InstName R2
SYMATTR Value 0.22
SYMBOL res 368 592 R0
SYMATTR InstName R3
SYMATTR Value 0.22
SYMBOL npn 320 864 R0
SYMATTR InstName Q3
SYMATTR Value 2SCR542P
SYMBOL pnp 128 864 M180
SYMATTR InstName Q4
SYMATTR Value BC557B
SYMBOL res 176 992 R0
SYMATTR InstName R4
SYMATTR Value 100
